CPYDAR/j1red/Master.dss
Clear
New Circuit.j1


Redirect Vsource.dss
Redirect LoadShape.dss
Redirect GrowthShape.dss
Redirect XYcurve.dss
Redirect TCC_Curve.dss
Redirect Spectrum.dss
Redirect Line.dss
Redirect VCCS.dss
Redirect Load.dss
Redirect Transformer.dss
Redirect RegControl.dss
Redirect Capacitor.dss
Redirect Relay.dss
Redirect Recloser.dss
MakeBusList
Redirect BusVoltageBases.dss  ! set voltage bases
Buscoords BusCoords.dss
GIScoords GISCoords.dss
